RADICS-Ex2 Yes Even More GLD Models/RADICS_Sub8.glm
//Input feeder information for Taxonomy Feeders with different cases.
//Started on 10/21/09. This version created 29-Sep-2017 11:16:17.
// This version was created to perform FY11 Department of Energy
// analysis on the benefits of the SGIG grant projects.

clock {
	timezone CST+6CDT;
	starttime '2009-01-01 00:00:00';
	stoptime '2010-01-02 00:00:00';
}

#include "appliance_schedules.glm";
#include "water_and_setpoint_schedule_v5.glm";
#include "commercial_schedules.glm";
#set minimum_timestep=4;
#set profiler=1;
#set relax_naming_rules=1;

module tape;

module climate;

module residential {
	implicit_enduses NONE;
};

module powerflow {
	solver_method NR;
	NR_iteration_limit 50;
	lu_solver "KLU_x64";
};

class player {
	double value;
};

object climate {
	name "IL-Chicago";
	tmyfile "IL-Chicago.tmy2";
	interpolate QUADRATIC;
}

object regulator_configuration {
	name feeder_reg_cfg;
	Control OUTPUT_VOLTAGE;
	band_center 20748;
	band_width 332.0;
	connect_type WYE_WYE;
	time_delay 30;
	raise_taps 16;
	lower_taps 16;
	regulation 0.10;
	tap_pos_A 0;
	tap_pos_B 0;
	tap_pos_C 0;
}

object line_configuration {
	name line_configuration_28;
	conductor_C overhead_line_conductor_2;
	conductor_N overhead_line_conductor_2;
	spacing line_spacing_15;
}

object line_configuration {
	name line_configuration_29;
	conductor_C overhead_line_conductor_3;
	conductor_N overhead_line_conductor_3;
	spacing line_spacing_15;
}

object line_configuration {
	name line_configuration_30;
	conductor_A overhead_line_conductor_4;
	conductor_B overhead_line_conductor_4;
	conductor_C overhead_line_conductor_4;
	conductor_N overhead_line_conductor_4;
	spacing line_spacing_16;
}

object line_configuration {
	name line_configuration_31;
	conductor_B overhead_line_conductor_4;
	conductor_N overhead_line_conductor_4;
	spacing line_spacing_17;
}

object line_configuration {
	name line_configuration_32;
	conductor_A overhead_line_conductor_2;
	conductor_B overhead_line_conductor_2;
	conductor_C overhead_line_conductor_2;
	conductor_N overhead_line_conductor_2;
	spacing line_spacing_16;
}

object line_configuration {
	name line_configuration_33;
	conductor_A overhead_line_conductor_5;
	conductor_B overhead_line_conductor_5;
	conductor_C overhead_line_conductor_5;
	conductor_N overhead_line_conductor_5;
	spacing line_spacing_16;
}

object line_configuration {
	name line_configuration_34;
	conductor_A overhead_line_conductor_4;
	conductor_N overhead_line_conductor_4;
	spacing line_spacing_18;
}

object line_configuration {
	name line_configuration_35;
	conductor_A overhead_line_conductor_4;
	conductor_B overhead_line_conductor_4;
	conductor_C overhead_line_conductor_4;
	conductor_N overhead_line_conductor_4;
	spacing line_spacing_16;
}

object line_configuration {
	name line_configuration_36;
	conductor_A overhead_line_conductor_5;
	conductor_B overhead_line_conductor_5;
	conductor_C overhead_line_conductor_5;
	conductor_N overhead_line_conductor_5;
	spacing line_spacing_16;
}

object line_configuration {
	name line_configuration_37;
	conductor_B overhead_line_conductor_5;
	conductor_N overhead_line_conductor_5;
	spacing line_spacing_17;
}

object line_configuration {
	name line_configuration_38;
	conductor_A overhead_line_conductor_6;
	conductor_B overhead_line_conductor_6;
	conductor_C overhead_line_conductor_6;
	conductor_N overhead_line_conductor_6;
	spacing line_spacing_16;
}

object line_configuration {
	name line_configuration_39;
	conductor_A overhead_line_conductor_3;
	conductor_N overhead_line_conductor_3;
	spacing line_spacing_18;
}

object line_configuration {
	name line_configuration_40;
	conductor_A overhead_line_conductor_3;
	conductor_B overhead_line_conductor_3;
	conductor_C overhead_line_conductor_3;
	conductor_N overhead_line_conductor_3;
	spacing line_spacing_16;
}

object line_configuration {
	name line_configuration_41;
	conductor_B overhead_line_conductor_3;
	conductor_N overhead_line_conductor_3;
	spacing line_spacing_17;
}

object line_configuration {
	name line_configuration_42;
	conductor_C overhead_line_conductor_4;
	conductor_N overhead_line_conductor_4;
	spacing line_spacing_15;
}

object line_configuration {
	name line_configuration_43;
	conductor_A overhead_line_conductor_7;
	conductor_N overhead_line_conductor_7;
	spacing line_spacing_18;
}

object line_configuration {
	name line_configuration_44;
	conductor_A overhead_line_conductor_5;
	conductor_N overhead_line_conductor_5;
	spacing line_spacing_18;
}

object line_configuration {
	name line_configuration_45;
	conductor_A overhead_line_conductor_8;
	conductor_B overhead_line_conductor_8;
	conductor_C overhead_line_conductor_8;
	conductor_N overhead_line_conductor_8;
	spacing line_spacing_16;
}

object line_configuration {
	name line_configuration_46;
	conductor_B underground_line_conductor_9;
	conductor_N underground_line_conductor_9;
	spacing line_spacing_19;
}

object line_configuration {
	name line_configuration_47;
	conductor_A overhead_line_conductor_10;
	conductor_B overhead_line_conductor_10;
	conductor_C overhead_line_conductor_10;
	conductor_N overhead_line_conductor_10;
	spacing line_spacing_16;
}

object line_configuration {
	name line_configuration_48;
	conductor_A overhead_line_conductor_2;
	conductor_B overhead_line_conductor_2;
	conductor_C overhead_line_conductor_2;
	conductor_N overhead_line_conductor_2;
	spacing line_spacing_16;
}

object line_configuration {
	name line_configuration_49;
	conductor_B overhead_line_conductor_2;
	conductor_N overhead_line_conductor_2;
	spacing line_spacing_17;
}

object line_configuration {
	name line_configuration_50;
	conductor_A overhead_line_conductor_3;
	conductor_N overhead_line_conductor_3;
	spacing line_spacing_20;
}

object line_configuration {
	name line_configuration_51;
	conductor_A underground_line_conductor_9;
	conductor_N underground_line_conductor_9;
	spacing line_spacing_21;
}

object line_configuration {
	name line_configuration_52;
	conductor_C underground_line_conductor_9;
	conductor_N underground_line_conductor_9;
	spacing line_spacing_22;
}

object line_configuration {
	name line_configuration_53;
	conductor_A underground_line_conductor_11;
	conductor_N underground_line_conductor_11;
	spacing line_spacing_21;
}

object line_configuration {
	name line_configuration_54;
	conductor_A underground_line_conductor_9;
	conductor_B underground_line_conductor_9;
	conductor_C underground_line_conductor_9;
	conductor_N underground_line_conductor_9;
	spacing line_spacing_23;
}

object line_configuration {
	name line_configuration_55;
	conductor_A overhead_line_conductor_6;
	conductor_B overhead_line_conductor_6;
	conductor_C overhead_line_conductor_6;
	conductor_N overhead_line_conductor_6;
	spacing line_spacing_16;
}

object line_configuration {
	name line_configuration_56;
	conductor_B overhead_line_conductor_4;
	conductor_N overhead_line_conductor_4;
	spacing line_spacing_17;
}

object line_configuration {
	name line_configuration_57;
	conductor_A overhead_line_conductor_6;
	conductor_B overhead_line_conductor_6;
	conductor_C overhead_line_conductor_6;
	conductor_N overhead_line_conductor_6;
	spacing line_spacing_16;
}

object line_configuration {
	name line_configuration_58;
	conductor_A overhead_line_conductor_2;
	conductor_N overhead_line_conductor_2;
	spacing line_spacing_18;
}

object line_configuration {
	name line_configuration_59;
	conductor_A overhead_line_conductor_10;
	conductor_B overhead_line_conductor_10;
	conductor_C overhead_line_conductor_10;
	conductor_N overhead_line_conductor_10;
	spacing line_spacing_16;
}

object line_configuration {
	name line_configuration_60;
	conductor_A overhead_line_conductor_12;
	conductor_B overhead_line_conductor_12;
	conductor_C overhead_line_conductor_12;
	conductor_N overhead_line_conductor_12;
	spacing line_spacing_16;
}

object line_configuration {
	name line_configuration_61;
	conductor_B overhead_line_conductor_4;
	conductor_C overhead_line_conductor_4;
	conductor_N overhead_line_conductor_4;
	spacing line_spacing_24;
}

object line_configuration {
	name line_configuration_62;
	conductor_A overhead_line_conductor_13;
	conductor_B overhead_line_conductor_13;
	conductor_C overhead_line_conductor_13;
	conductor_N overhead_line_conductor_13;
	spacing line_spacing_16;
}

object line_configuration {
	name line_configuration_63;
	conductor_B overhead_line_conductor_2;
	conductor_C overhead_line_conductor_2;
	conductor_N overhead_line_conductor_2;
	spacing line_spacing_24;
}

object line_configuration {
	name line_configuration_64;
	conductor_C overhead_line_conductor_10;
	conductor_N overhead_line_conductor_10;
	spacing line_spacing_15;
}

object line_configuration {
	name line_configuration_65;
	conductor_A overhead_line_conductor_3;
	conductor_B overhead_line_conductor_3;
	conductor_C overhead_line_conductor_3;
	conductor_N overhead_line_conductor_3;
	spacing line_spacing_16;
}

object line_configuration {
	name line_configuration_66;
	conductor_C underground_line_conductor_11;
	conductor_N underground_line_conductor_11;
	spacing line_spacing_22;
}

object line_configuration {
	name line_configuration_67;
	conductor_A overhead_line_conductor_13;
	conductor_N overhead_line_conductor_13;
	spacing line_spacing_18;
}

object line_configuration {
	name line_configuration_68;
	conductor_A overhead_line_conductor_3;
	conductor_C overhead_line_conductor_3;
	conductor_N overhead_line_conductor_3;
	spacing line_spacing_25;
}

object line_configuration {
	name line_configuration_69;
	conductor_A overhead_line_conductor_10;
	conductor_C overhead_line_conductor_10;
	conductor_N overhead_line_conductor_10;
	spacing line_spacing_25;
}

object line_configuration {
	name line_configuration_70;
	conductor_A overhead_line_conductor_2;
	conductor_C overhead_line_conductor_2;
	conductor_N overhead_line_conductor_2;
	spacing line_spacing_25;
}

object line_configuration {
	name line_configuration_71;
	conductor_A overhead_line_conductor_4;
	conductor_C overhead_line_conductor_4;
	conductor_N overhead_line_conductor_4;
	spacing line_spacing_25;
}

object line_configuration {
	name line_configuration_72;
	conductor_A overhead_line_conductor_3;
	conductor_B overhead_line_conductor_3;
	conductor_N overhead_line_conductor_3;
	spacing line_spacing_26;
}

object line_configuration {
	name line_configuration_73;
	conductor_A overhead_line_conductor_2;
	conductor_B overhead_line_conductor_2;
	conductor_N overhead_line_conductor_2;
	spacing line_spacing_26;
}

object line_configuration {
	name line_configuration_74;
	conductor_B underground_line_conductor_11;
	conductor_N underground_line_conductor_11;
	spacing line_spacing_19;
}

object line_configuration {
	name line_configuration_75;
	conductor_B overhead_line_conductor_2;
	conductor_N overhead_line_conductor_2;
	spacing line_spacing_17;
}

object line_configuration {
	name line_configuration_76;
	conductor_A overhead_line_conductor_5;
	conductor_B overhead_line_conductor_5;
	conductor_C overhead_line_conductor_5;
	conductor_N overhead_line_conductor_5;
	spacing line_spacing_16;
}

object line_configuration {
	name line_configuration_77;
	conductor_A overhead_line_conductor_5;
	conductor_B overhead_line_conductor_5;
	conductor_C overhead_line_conductor_5;
	conductor_N overhead_line_conductor_5;
	spacing line_spacing_16;
}

object line_configuration {
	name line_configuration_78;
	conductor_C overhead_line_conductor_6;
	conductor_N overhead_line_conductor_6;
	spacing line_spacing_15;
}

object line_configuration {
	name line_configuration_79;
	conductor_A underground_line_conductor_9;
	conductor_B underground_line_conductor_9;
	conductor_N underground_line_conductor_9;
	spacing line_spacing_27;
}

object line_configuration {
	name line_configuration_80;
	conductor_C overhead_line_conductor_12;
	conductor_N overhead_line_conductor_12;
	spacing line_spacing_15;
}

object line_configuration {
	name line_configuration_81;
	conductor_B overhead_line_conductor_4;
	conductor_C overhead_line_conductor_4;
	conductor_N overhead_line_conductor_4;
	spacing line_spacing_24;
}

object line_configuration {
	name line_configuration_82;
	conductor_A overhead_line_conductor_3;
	conductor_B overhead_line_conductor_3;
	conductor_C overhead_line_conductor_3;
	conductor_N overhead_line_conductor_3;
	spacing line_spacing_23;
}

object line_configuration {
	name line_configuration_83;
	conductor_B overhead_line_conductor_3;
	conductor_C overhead_line_conductor_3;
	conductor_N overhead_line_conductor_3;
	spacing line_spacing_24;
}

object line_configuration {
	name line_configuration_84;
	conductor_C overhead_line_conductor_4;
	conductor_N overhead_line_conductor_4;
	spacing line_spacing_15;
}

object line_configuration {
	name line_configuration_85;
	conductor_A overhead_line_conductor_5;
	conductor_C overhead_line_conductor_5;
	conductor_N overhead_line_conductor_5;
	spacing line_spacing_25;
}

object line_configuration {
	name line_configuration_86;
	conductor_C overhead_line_conductor_7;
	conductor_N overhead_line_conductor_7;
	spacing line_spacing_15;
}

object line_configuration {
	name line_configuration_87;
	conductor_C overhead_line_conductor_5;
	conductor_N overhead_line_conductor_5;
	spacing line_spacing_15;
}

object line_spacing {
	name line_spacing_15;
	distance_CN 39.396 in;
}

object line_spacing {
	name line_spacing_16;
	distance_AB 48.0 in;
	distance_BC 48.0 in;
	distance_AC 48.0 in;
	distance_AN 39.396 in;
	distance_BN 39.396 in;
	distance_CN 39.396 in;
}

object line_spacing {
	name line_spacing_17;
	distance_BN 39.396 in;
}

object line_spacing {
	name line_spacing_18;
	distance_AN 39.396 in;
}

object line_spacing {
	name line_spacing_19;
	distance_BN 36.0 in;
}

object line_spacing {
	name line_spacing_20;
	distance_AN 39.4 in;
}

object line_spacing {
	name line_spacing_21;
	distance_AN 36.0 in;
}

object line_spacing {
	name line_spacing_22;
	distance_CN 36.0 in;
}

object line_spacing {
	name line_spacing_23;
	distance_AB 48.0 in;
	distance_BC 48.0 in;
	distance_AC 48.0 in;
	distance_AN 36.0 in;
	distance_BN 36.0 in;
	distance_CN 36.0 in;
}

object line_spacing {
	name line_spacing_24;
	distance_BC 48.0 in;
	distance_BN 39.396 in;
	distance_CN 39.396 in;
}

object line_spacing {
	name line_spacing_25;
	distance_AC 48.0 in;
	distance_AN 39.396 in;
	distance_CN 39.396 in;
}

object line_spacing {
	name line_spacing_26;
	distance_AB 48.0 in;
	distance_AN 39.396 in;
	distance_BN 39.396 in;
}

object line_spacing {
	name line_spacing_27;
	distance_AB 48.0 in;
	distance_AN 36.0 in;
	distance_BN 36.0 in;
}

object overhead_line_conductor {
	name overhead_line_conductor_2;
	rating.summer.continuous 84.0;
	geometric_mean_radius 0.00417 ft;
	resistance 3.84030;
}

object overhead_line_conductor {
	name overhead_line_conductor_3;
	rating.summer.continuous 164.0;
	geometric_mean_radius 0.00883 ft;
	resistance 1.51970;
}

object overhead_line_conductor {
	name overhead_line_conductor_4;
	rating.summer.continuous 149.0;
	geometric_mean_radius 0.00663 ft;
	resistance 1.50000;
}

object overhead_line_conductor {
	name overhead_line_conductor_5;
	rating.summer.continuous 334.0;
	geometric_mean_radius 0.00814 ft;
	resistance 0.56300;
}

object overhead_line_conductor {
	name overhead_line_conductor_6;
	rating.summer.continuous 443.0;
	geometric_mean_radius 0.02270 ft;
	resistance 0.05230;
}

object overhead_line_conductor {
	name overhead_line_conductor_7;
	rating.summer.continuous 32.2;
	geometric_mean_radius 0.00416 ft;
	resistance 3.80000;
}

object overhead_line_conductor {
	name overhead_line_conductor_8;
	rating.summer.continuous 600.0;
	geometric_mean_radius 0.00801 ft;
	resistance 0.30590;
}

object overhead_line_conductor {
	name overhead_line_conductor_10;
	rating.summer.continuous 120.0;
	geometric_mean_radius 0.00700 ft;
	resistance 2.40970;
}

object overhead_line_conductor {
	name overhead_line_conductor_12;
	rating.summer.continuous 204.0;
	geometric_mean_radius 0.00836 ft;
	resistance 0.94500;
}

object overhead_line_conductor {
	name overhead_line_conductor_13;
	rating.summer.continuous 197.0;
	geometric_mean_radius 0.00883 ft;
	resistance 1.51970;
}

object overhead_line_conductor {
	name overhead_line_conductor_14;
	rating.summer.continuous 891.0;
	geometric_mean_radius 0.03550 ft;
	resistance 0.14420;
}

object transformer_configuration {
	name transformer_configuration_2672;
	connect_type SINGLE_PHASE_CENTER_TAPPED;
	install_type POLETOP;
	primary_voltage 19918.58 V;
	secondary_voltage 120 V;
	power_rating 25.0;
	powerA_rating 25.0;
	resistance 0.00600;
	reactance 0.00400;
	shunt_impedance 339.610+362.733j;
}

object transformer_configuration {
	name transformer_configuration_2673;
	connect_type SINGLE_PHASE_CENTER_TAPPED;
	install_type PADMOUNT;
	primary_voltage 19918.58 V;
	secondary_voltage 120 V;
	power_rating 25.0;
	powerA_rating 25.0;
	resistance 0.00600;
	reactance 0.00400;
	shunt_impedance 339.610+295.888j;
}

object transformer_configuration {
	name transformer_configuration_2674;
	connect_type SINGLE_PHASE_CENTER_TAPPED;
	install_type PADMOUNT;
	primary_voltage 19918.58 V;
	secondary_voltage 120 V;
	power_rating 75.0;
	powerA_rating 75.0;
	resistance 0.00200;
	reactance 0.00133;
	shunt_impedance 443.910+453.591j;
}

object transformer_configuration {
	name transformer_configuration_2675;
	connect_type SINGLE_PHASE_CENTER_TAPPED;
	install_type POLETOP;
	primary_voltage 19918.58 V;
	secondary_voltage 120 V;
	power_rating 50.0;
	powerA_rating 50.0;
	resistance 0.00300;
	reactance 0.00200;
	shunt_impedance 391.760+330.388j;
}

object transformer_configuration {
	name transformer_configuration_2676;
	connect_type SINGLE_PHASE_CENTER_TAPPED;
	install_type POLETOP;
	primary_voltage 19918.58 V;
	secondary_voltage 120 V;
	power_rating 15.0;
	powerA_rating 15.0;
	resistance 0.01000;
	reactance 0.00667;
	shunt_impedance 318.750+343.717j;
}

object transformer_configuration {
	name transformer_configuration_2677;
	connect_type SINGLE_PHASE_CENTER_TAPPED;
	install_type POLETOP;
	primary_voltage 19918.58 V;
	secondary_voltage 120 V;
	power_rating 75.0;
	powerA_rating 75.0;
	resistance 0.00200;
	reactance 0.00133;
	shunt_impedance 443.910+430.123j;
}

object transformer_configuration {
	name transformer_configuration_2678;
	connect_type SINGLE_PHASE_CENTER_TAPPED;
	install_type POLETOP;
	primary_voltage 19918.58 V;
	secondary_voltage 120 V;
	power_rating 10.0;
	powerA_rating 10.0;
	resistance 0.015;
	reactance 0.01;
	shunt_impedance 308.320+328.525j;
}

object transformer_configuration {
	name transformer_configuration_2679;
	connect_type SINGLE_PHASE_CENTER_TAPPED;
	install_type PADMOUNT;
	primary_voltage 19918.58 V;
	secondary_voltage 120 V;
	power_rating 15.0;
	powerA_rating 15.0;
	resistance 0.01000;
	reactance 0.00667;
	shunt_impedance 318.750+301.618j;
}

object transformer_configuration {
	name transformer_configuration_2680;
	connect_type SINGLE_PHASE_CENTER_TAPPED;
	install_type POLETOP;
	primary_voltage 19918.58 V;
	secondary_voltage 120 V;
	power_rating 125.0;
	powerA_rating 125.0;
	resistance 0.00120;
	reactance 0.00080;
	shunt_impedance 548.210+566.227j;
}

object transformer_configuration {
	name transformer_configuration_2681;
	connect_type SINGLE_PHASE_CENTER_TAPPED;
	install_type POLETOP;
	primary_voltage 19918.58 V;
	secondary_voltage 120 V;
	power_rating 37.5;
	powerA_rating 37.5;
	resistance 0.00400;
	reactance 0.00267;
	shunt_impedance 365.685+404.231j;
}

object transformer_configuration {
	name transformer_configuration_2682;
	connect_type SINGLE_PHASE_CENTER_TAPPED;
	install_type POLETOP;
	primary_voltage 19918.58 V;
	secondary_voltage 120 V;
	power_rating 25.0;
	powerB_rating 25.0;
	resistance 0.00600;
	reactance 0.00400;
	shunt_impedance 339.610+272.377j;
}

object transformer_configuration {
	name transformer_configuration_2683;
	connect_type SINGLE_PHASE_CENTER_TAPPED;
	install_type POLETOP;
	primary_voltage 19918.58 V;
	secondary_voltage 120 V;
	power_rating 50.0;
	powerB_rating 50.0;
	resistance 0.00300;
	reactance 0.00200;
	shunt_impedance 391.760+318.603j;
}

object transformer_configuration {
	name transformer_configuration_2684;
	connect_type SINGLE_PHASE_CENTER_TAPPED;
	install_type POLETOP;
	primary_voltage 19918.58 V;
	secondary_voltage 120 V;
	power_rating 15.0;
	powerB_rating 15.0;
	resistance 0.01000;
	reactance 0.00667;
	shunt_impedance 318.750+260.344j;
}

object transformer_configuration {
	name transformer_configuration_2685;
	connect_type SINGLE_PHASE_CENTER_TAPPED;
	install_type PADMOUNT;
	primary_voltage 19918.58 V;
	secondary_voltage 120 V;
	power_rating 25.0;
	powerB_rating 25.0;
	resistance 0.00600;
	reactance 0.00400;
	shunt_impedance 339.610+368.429j;
}

object transformer_configuration {
	name transformer_configuration_2686;
	connect_type SINGLE_PHASE_CENTER_TAPPED;
	install_type PADMOUNT;
	primary_voltage 19918.58 V;
	secondary_voltage 120 V;
	power_rating 15.0;
	powerB_rating 15.0;
	resistance 0.01000;
	reactance 0.00667;
	shunt_impedance 318.750+331.665j;
}

object transformer_configuration {
	name transformer_configuration_2687;
	connect_type SINGLE_PHASE_CENTER_TAPPED;
	install_type PADMOUNT;
	primary_voltage 19918.58 V;
	secondary_voltage 120 V;
	power_rating 75.0;
	powerB_rating 75.0;
	resistance 0.00200;
	reactance 0.00133;
	shunt_impedance 443.910+412.727j;
}

object transformer_configuration {
	name transformer_configuration_2688;
	connect_type SINGLE_PHASE_CENTER_TAPPED;
	install_type POLETOP;
	primary_voltage 19918.58 V;
	secondary_voltage 120 V;
	power_rating 62.5;
	powerB_rating 62.5;
	resistance 0.00240;
	reactance 0.00160;
	shunt_impedance 417.835+480.470j;
}

object transformer_configuration {
	name transformer_configuration_2689;
	connect_type SINGLE_PHASE_CENTER_TAPPED;
	install_type POLETOP;
	primary_voltage 19918.58 V;
	secondary_voltage 120 V;
	power_rating 37.5;
	powerB_rating 37.5;
	resistance 0.00400;
	reactance 0.00267;
	shunt_impedance 365.685+370.724j;
}

object transformer_configuration {
	name transformer_configuration_2690;
	connect_type SINGLE_PHASE_CENTER_TAPPED;
	install_type POLETOP;
	primary_voltage 19918.58 V;
	secondary_voltage 120 V;
	power_rating 125.0;
	powerB_rating 125.0;
	resistance 0.00120;
	reactance 0.00080;
	shunt_impedance 548.210+461.219j;
}

object transformer_configuration {
	name transformer_configuration_2691;
	connect_type SINGLE_PHASE_CENTER_TAPPED;
	install_type POLETOP;
	primary_voltage 19918.58 V;
	secondary_voltage 120 V;
	power_rating 100.0;
	powerB_rating 100.0;
	resistance 0.00150;
	reactance 0.00100;
	shunt_impedance 496.060+445.504j;
}

object transformer_configuration {
	name transformer_configuration_2692;
	connect_type SINGLE_PHASE_CENTER_TAPPED;
	install_type POLETOP;
	primary_voltage 19918.58 V;
	secondary_voltage 120 V;
	power_rating 25.0;
	powerC_rating 25.0;
	resistance 0.00600;
	reactance 0.00400;
	shunt_impedance 339.610+292.566j;
}

object transformer_configuration {
	name transformer_configuration_2693;
	connect_type SINGLE_PHASE_CENTER_TAPPED;
	install_type POLETOP;
	primary_voltage 19918.58 V;
	secondary_voltage 120 V;
	power_rating 15.0;
	powerC_rating 15.0;
	resistance 0.01000;
	reactance 0.00667;
	shunt_impedance 318.750+349.187j;
}

object transformer_configuration {
	name transformer_configuration_2694;
	connect_type SINGLE_PHASE_CENTER_TAPPED;
	install_type POLETOP;
	primary_voltage 19918.58 V;
	secondary_voltage 120 V;
	power_rating 75.0;
	powerC_rating 75.0;
	resistance 0.00200;
	reactance 0.00133;
	shunt_impedance 443.910+417.226j;
}

object transformer_configuration {
	name transformer_configuration_2695;
	connect_type SINGLE_PHASE_CENTER_TAPPED;
	install_type POLETOP;
	primary_voltage 19918.58 V;
	secondary_voltage 120 V;
	power_rating 37.5;
	powerC_rating 37.5;
	resistance 0.00400;
	reactance 0.00267;
	shunt_impedance 365.685+322.831j;
}

object transformer_configuration {
	name transformer_configuration_2696;
	connect_type SINGLE_PHASE_CENTER_TAPPED;
	install_type POLETOP;
	primary_voltage 19918.58 V;
	secondary_voltage 120 V;
	power_rating 50.0;
	powerC_rating 50.0;
	resistance 0.00300;
	reactance 0.00200;
	shunt_impedance 391.760+369.151j;
}

object transformer_configuration {
	name transformer_configuration_2697;
	connect_type SINGLE_PHASE_CENTER_TAPPED;
	install_type POLETOP;
	primary_voltage 19918.58 V;
	secondary_voltage 120 V;
	power_rating 62.5;
	powerC_rating 62.5;
	resistance 0.00240;
	reactance 0.00160;
	shunt_impedance 417.835+382.886j;
}

object transformer_configuration {
	name transformer_configuration_2698;
	connect_type SINGLE_PHASE_CENTER_TAPPED;
	install_type PADMOUNT;
	primary_voltage 19918.58 V;
	secondary_voltage 120 V;
	power_rating 15.0;
	powerC_rating 15.0;
	resistance 0.01000;
	reactance 0.00667;
	shunt_impedance 318.750+345.938j;
}

object transformer_configuration {
	name transformer_configuration_2699;
	connect_type SINGLE_PHASE_CENTER_TAPPED;
	install_type POLETOP;
	primary_voltage 19918.58 V;
	secondary_voltage 120 V;
	power_rating 30.0;
	powerC_rating 30.0;
	resistance 0.00500;
	reactance 0.00333;
	shunt_impedance 350.040+366.749j;
}

object transformer_configuration {
	name transformer_configuration_2700;
	connect_type SINGLE_PHASE_CENTER_TAPPED;
	install_type PADMOUNT;
	primary_voltage 19918.58 V;
	secondary_voltage 120 V;
	power_rating 25.0;
	powerC_rating 25.0;
	resistance 0.00600;
	reactance 0.00400;
	shunt_impedance 339.610+349.877j;
}

object transformer_configuration {
	name transformer_configuration_2701;
	connect_type SINGLE_PHASE_CENTER_TAPPED;
	install_type PADMOUNT;
	primary_voltage 19918.58 V;
	secondary_voltage 120 V;
	power_rating 75.0;
	powerC_rating 75.0;
	resistance 0.00200;
	reactance 0.00133;
	shunt_impedance 443.910+462.367j;
}

object transformer_configuration {
	name transformer_configuration_2702;
	connect_type SINGLE_PHASE_CENTER_TAPPED;
	install_type PADMOUNT;
	primary_voltage 19918.58 V;
	secondary_voltage 120 V;
	power_rating 50.0;
	powerC_rating 50.0;
	resistance 0.00300;
	reactance 0.00200;
	shunt_impedance 391.760+393.444j;
}

object transformer_configuration {
	name transformer_configuration_2703;
	connect_type SINGLE_PHASE_CENTER_TAPPED;
	install_type POLETOP;
	primary_voltage 19918.58 V;
	secondary_voltage 120 V;
	power_rating 125.0;
	powerC_rating 125.0;
	resistance 0.00120;
	reactance 0.00080;
	shunt_impedance 548.210+496.193j;
}

object transformer_configuration {
	name transformer_configuration_2704;
	connect_type SINGLE_PHASE_CENTER_TAPPED;
	install_type POLETOP;
	primary_voltage 19918.58 V;
	secondary_voltage 120 V;
	power_rating 100.0;
	powerC_rating 100.0;
	resistance 0.00150;
	reactance 0.00100;
	shunt_impedance 496.060+522.927j;
}

object transformer_configuration {
	name transformer_configuration_2868;
	connect_type WYE_WYE;
	install_type POLETOP;
	primary_voltage 34500.000 V;
	secondary_voltage 480 V;
	power_rating 65.0;
	powerA_rating 25.0;
	powerB_rating 15.0;
	powerC_rating 25.0;
	resistance 0.00154;
	reactance 0.00769;
	shunt_impedance 423.050+388.312j;
}

object transformer_configuration {
	name transformer_configuration_2869;
	connect_type WYE_WYE;
	install_type POLETOP;
	primary_voltage 34500.000 V;
	secondary_voltage 480 V;
	power_rating 25.0;
	powerA_rating 25.0;
	resistance 0.00400;
	reactance 0.02000;
	shunt_impedance 339.610+303.207j;
}

object transformer_configuration {
	name transformer_configuration_2870;
	connect_type WYE_WYE;
	install_type POLETOP;
	primary_voltage 34500.000 V;
	secondary_voltage 480 V;
	power_rating 65.0;
	powerA_rating 15.0;
	powerB_rating 25.0;
	powerC_rating 25.0;
	resistance 0.00154;
	reactance 0.00769;
	shunt_impedance 423.050+377.611j;
}

object transformer_configuration {
	name transformer_configuration_2871;
	connect_type WYE_WYE;
	install_type POLETOP;
	primary_voltage 34500.000 V;
	secondary_voltage 480 V;
	power_rating 75.0;
	powerA_rating 75.0;
	resistance 0.00133;
	reactance 0.00667;
	shunt_impedance 443.910+482.510j;
}

object transformer_configuration {
	name transformer_configuration_2872;
	connect_type WYE_WYE;
	install_type POLETOP;
	primary_voltage 34500.000 V;
	secondary_voltage 480 V;
	power_rating 15.0;
	powerA_rating 15.0;
	resistance 0.00667;
	reactance 0.03333;
	shunt_impedance 318.750+350.021j;
}

object transformer_configuration {
	name transformer_configuration_2873;
	connect_type WYE_WYE;
	install_type POLETOP;
	primary_voltage 34500.000 V;
	secondary_voltage 480 V;
	power_rating 90.0;
	powerA_rating 30.0;
	powerB_rating 30.0;
	powerC_rating 30.0;
	resistance 0.00111;
	reactance 0.00556;
	shunt_impedance 475.200+391.621j;
}

object transformer_configuration {
	name transformer_configuration_2874;
	connect_type WYE_WYE;
	install_type POLETOP;
	primary_voltage 34500.000 V;
	secondary_voltage 480 V;
	power_rating 45.0;
	powerA_rating 15.0;
	powerB_rating 15.0;
	powerC_rating 15.0;
	resistance 0.00222;
	reactance 0.01111;
	shunt_impedance 381.330+375.683j;
}

object transformer_configuration {
	name transformer_configuration_2875;
	connect_type WYE_WYE;
	install_type POLETOP;
	primary_voltage 34500.000 V;
	secondary_voltage 480 V;
	power_rating 25.0;
	powerB_rating 25.0;
	resistance 0.00400;
	reactance 0.02000;
	shunt_impedance 339.610+348.166j;
}

object transformer_configuration {
	name transformer_configuration_2876;
	connect_type WYE_WYE;
	install_type POLETOP;
	primary_voltage 34500.000 V;
	secondary_voltage 480 V;
	power_rating 30.0;
	powerB_rating 30.0;
	resistance 0.00333;
	reactance 0.01667;
	shunt_impedance 350.040+328.674j;
}

object transformer_configuration {
	name transformer_configuration_2877;
	connect_type WYE_WYE;
	install_type POLETOP;
	primary_voltage 34500.000 V;
	secondary_voltage 480 V;
	power_rating 75.0;
	powerA_rating 25.0;
	powerB_rating 25.0;
	powerC_rating 25.0;
	resistance 0.00133;
	reactance 0.00667;
	shunt_impedance 443.910+477.691j;
}

object transformer_configuration {
	name transformer_configuration_2878;
	connect_type WYE_WYE;
	install_type POLETOP;
	primary_voltage 34500.000 V;
	secondary_voltage 480 V;
	power_rating 60.0;
	powerA_rating 30.0;
	powerB_rating 15.0;
	powerC_rating 15.0;
	resistance 0.00167;
	reactance 0.00833;
	shunt_impedance 412.620+423.118j;
}

object transformer_configuration {
	name transformer_configuration_2879;
	connect_type WYE_WYE;
	install_type POLETOP;
	primary_voltage 34500.000 V;
	secondary_voltage 480 V;
	power_rating 62.5;
	powerC_rating 62.5;
	resistance 0.00160;
	reactance 0.00800;
	shunt_impedance 417.835+411.449j;
}

object transformer_configuration {
	name transformer_configuration_2880;
	connect_type WYE_WYE;
	install_type PADMOUNT;
	primary_voltage 34500.000 V;
	secondary_voltage 480 V;
	power_rating 30.0;
	powerA_rating 30.0;
	resistance 0.00333;
	reactance 0.01667;
	shunt_impedance 350.040+330.528j;
}

object transformer_configuration {
	name transformer_configuration_2881;
	connect_type WYE_WYE;
	install_type POLETOP;
	primary_voltage 34500.000 V;
	secondary_voltage 480 V;
	power_rating 50.0;
	powerB_rating 50.0;
	resistance 0.00200;
	reactance 0.01000;
	shunt_impedance 391.760+418.283j;
}

object transformer_configuration {
	name transformer_configuration_2882;
	connect_type WYE_WYE;
	install_type POLETOP;
	primary_voltage 34500.000 V;
	secondary_voltage 480 V;
	power_rating 65.0;
	powerA_rating 25.0;
	powerB_rating 25.0;
	powerC_rating 15.0;
	resistance 0.00154;
	reactance 0.00769;
	shunt_impedance 423.050+458.980j;
}

object transformer_configuration {
	name transformer_configuration_2883;
	connect_type WYE_WYE;
	install_type POLETOP;
	primary_voltage 34500.000 V;
	secondary_voltage 480 V;
	power_rating 15.0;
	powerB_rating 15.0;
	resistance 0.00667;
	reactance 0.03333;
	shunt_impedance 318.750+333.709j;
}

object transformer_configuration {
	name transformer_configuration_2884;
	connect_type WYE_WYE;
	install_type POLETOP;
	primary_voltage 34500.000 V;
	secondary_voltage 480 V;
	power_rating 175.0;
	powerA_rating 50.0;
	powerB_rating 50.0;
	powerC_rating 75.0;
	resistance 0.00057;
	reactance 0.00286;
	shunt_impedance 652.510+636.864j;
}

object transformer_configuration {
	name transformer_configuration_2885;
	connect_type WYE_WYE;
	install_type POLETOP;
	primary_voltage 34500.000 V;
	secondary_voltage 480 V;
	power_rating 175.0;
	powerA_rating 50.0;
	powerB_rating 75.0;
	powerC_rating 50.0;
	resistance 0.00057;
	reactance 0.00286;
	shunt_impedance 652.510+712.605j;
}

object transformer_configuration {
	name transformer_configuration_2886;
	connect_type WYE_WYE;
	install_type POLETOP;
	primary_voltage 34500.000 V;
	secondary_voltage 480 V;
	power_rating 30.0;
	powerC_rating 30.0;
	resistance 0.00333;
	reactance 0.01667;
	shunt_impedance 350.040+318.296j;
}

object transformer_configuration {
	name transformer_configuration_2887;
	connect_type WYE_WYE;
	install_type POLETOP;
	primary_voltage 34500.000 V;
	secondary_voltage 480 V;
	power_rating 125.0;
	powerA_rating 125.0;
	resistance 0.00080;
	reactance 0.00400;
	shunt_impedance 548.210+556.128j;
}

object transformer_configuration {
	name transformer_configuration_2888;
	connect_type WYE_WYE;
	install_type POLETOP;
	primary_voltage 34500.000 V;
	secondary_voltage 480 V;
	power_rating 30.0;
	powerA_rating 30.0;
	resistance 0.00333;
	reactance 0.01667;
	shunt_impedance 350.040+398.920j;
}

object transformer_configuration {
	name transformer_configuration_2889;
	connect_type WYE_WYE;
	install_type POLETOP;
	primary_voltage 34500.000 V;
	secondary_voltage 480 V;
	power_rating 60.0;
	powerA_rating 25.0;
	powerB_rating 10.0;
	powerC_rating 25.0;
	resistance 0.00167;
	reactance 0.00833;
	shunt_impedance 412.620+404.793j;
}

object transformer_configuration {
	name transformer_configuration_2890;
	connect_type WYE_WYE;
	install_type POLETOP;
	primary_voltage 34500.000 V;
	secondary_voltage 480 V;
	power_rating 60.0;
	powerA_rating 10.0;
	powerB_rating 25.0;
	powerC_rating 25.0;
	resistance 0.00167;
	reactance 0.00833;
	shunt_impedance 412.620+377.802j;
}

object transformer_configuration {
	name transformer_configuration_2891;
	connect_type WYE_WYE;
	install_type PADMOUNT;
	primary_voltage 34500.000 V;
	secondary_voltage 480 V;
	power_rating 15.0;
	powerB_rating 15.0;
	resistance 0.00667;
	reactance 0.03333;
	shunt_impedance 318.750+380.697j;
}

object transformer_configuration {
	name transformer_configuration_2892;
	connect_type WYE_WYE;
	install_type PADMOUNT;
	primary_voltage 34500.000 V;
	secondary_voltage 480 V;
	power_rating 25.0;
	powerB_rating 25.0;
	resistance 0.00400;
	reactance 0.02000;
	shunt_impedance 339.610+331.224j;
}

object transformer_configuration {
	name transformer_configuration_2893;
	connect_type WYE_WYE;
	install_type PADMOUNT;
	primary_voltage 34500.000 V;
	secondary_voltage 480 V;
	power_rating 50.0;
	powerC_rating 50.0;
	resistance 0.00200;
	reactance 0.01000;
	shunt_impedance 391.760+409.061j;
}

object transformer_configuration {
	name transformer_configuration_2894;
	connect_type WYE_WYE;
	install_type POLETOP;
	primary_voltage 34500.000 V;
	secondary_voltage 480 V;
	power_rating 15.0;
	powerC_rating 15.0;
	resistance 0.00667;
	reactance 0.03333;
	shunt_impedance 318.750+293.135j;
}

object transformer_configuration {
	name transformer_configuration_2895;
	connect_type WYE_WYE;
	install_type PADMOUNT;
	primary_voltage 34500.000 V;
	secondary_voltage 480 V;
	power_rating 62.5;
	powerC_rating 62.5;
	resistance 0.00160;
	reactance 0.00800;
	shunt_impedance 417.835+429.852j;
}

object transformer_configuration {
	name transformer_configuration_2896;
	connect_type WYE_WYE;
	install_type PADMOUNT;
	primary_voltage 34500.000 V;
	secondary_voltage 480 V;
	power_rating 50.0;
	powerB_rating 50.0;
	resistance 0.00200;
	reactance 0.01000;
	shunt_impedance 391.760+410.056j;
}

object transformer_configuration {
	name transformer_configuration_2897;
	connect_type WYE_WYE;
	install_type PADMOUNT;
	primary_voltage 34500.000 V;
	secondary_voltage 480 V;
	power_rating 125.0;
	powerA_rating 37.5;
	powerB_rating 37.5;
	powerC_rating 50.0;
	resistance 0.00080;
	reactance 0.00400;
	shunt_impedance 548.210+548.460j;
}

object transformer_configuration {
	name transformer_configuration_2898;
	connect_type WYE_WYE;
	install_type PADMOUNT;
	primary_voltage 34500.000 V;
	secondary_voltage 480 V;
	power_rating 15.0;
	powerC_rating 15.0;
	resistance 0.00667;
	reactance 0.03333;
	shunt_impedance 318.750+329.144j;
}

object transformer_configuration {
	name transformer_configuration_2899;
	connect_type WYE_WYE;
	install_type POLETOP;
	primary_voltage 34500.000 V;
	secondary_voltage 480 V;
	power_rating 50.0;
	powerB_rating 25.0;
	powerC_rating 25.0;
	resistance 0.00200;
	reactance 0.01000;
	shunt_impedance 391.760+438.951j;
}

object transformer_configuration {
	name transformer_configuration_2900;
	connect_type WYE_WYE;
	install_type POLETOP;
	primary_voltage 34500.000 V;
	secondary_voltage 480 V;
	power_rating 25.0;
	powerC_rating 25.0;
	resistance 0.00400;
	reactance 0.02000;
	shunt_impedance 339.610+291.925j;
}

object transformer_configuration {
	name transformer_configuration_2901;
	connect_type WYE_WYE;
	install_type PADMOUNT;
	primary_voltage 34500.000 V;
	secondary_voltage 480 V;
	power_rating 75.0;
	powerA_rating 25.0;
	powerB_rating 25.0;
	powerC_rating 25.0;
	resistance 0.00133;
	reactance 0.00667;
	shunt_impedance 443.910+453.035j;
}

object transformer_configuration {
	name transformer_configuration_2902;
	connect_type WYE_WYE;
	install_type PADMOUNT;
	primary_voltage 34500.000 V;
	secondary_voltage 480 V;
	power_rating 55.0;
	powerA_rating 15.0;
	powerB_rating 25.0;
	powerC_rating 15.0;
	resistance 0.00182;
	reactance 0.00909;
	shunt_impedance 402.190+322.106j;
}

object transformer_configuration {
	name transformer_configuration_2903;
	connect_type WYE_WYE;
	install_type POLETOP;
	primary_voltage 34500.000 V;
	secondary_voltage 480 V;
	power_rating 10.0;
	powerC_rating 10.0;
	resistance 0.01;
	reactance 0.05;
	shunt_impedance 308.320+309.196j;
}

object transformer_configuration {
	name transformer_configuration_2904;
	connect_type WYE_WYE;
	install_type PADMOUNT;
	primary_voltage 34500.000 V;
	secondary_voltage 480 V;
	power_rating 45.0;
	powerA_rating 15.0;
	powerB_rating 15.0;
	powerC_rating 15.0;
	resistance 0.00222;
	reactance 0.01111;
	shunt_impedance 381.330+454.946j;
}

object transformer_configuration {
	name transformer_configuration_2905;
	connect_type WYE_WYE;
	install_type POLETOP;
	primary_voltage 34500.000 V;
	secondary_voltage 480 V;
	power_rating 112.5;
	powerA_rating 37.5;
	powerB_rating 37.5;
	powerC_rating 37.5;
	resistance 0.00089;
	reactance 0.00444;
	shunt_impedance 522.135+571.275j;
}

object transformer_configuration {
	name transformer_configuration_2906;
	connect_type WYE_WYE;
	install_type POLETOP;
	primary_voltage 34500.000 V;
	secondary_voltage 480 V;
	power_rating 137.5;
	powerA_rating 37.5;
	powerB_rating 37.5;
	powerC_rating 62.5;
	resistance 0.00073;
	reactance 0.00364;
	shunt_impedance 574.285+573.887j;
}

object transformer_configuration {
	name transformer_configuration_2907;
	connect_type WYE_WYE;
	install_type POLETOP;
	primary_voltage 34500.000 V;
	secondary_voltage 480 V;
	power_rating 45.0;
	powerA_rating 10.0;
	powerB_rating 10.0;
	powerC_rating 25.0;
	resistance 0.00222;
	reactance 0.01111;
	shunt_impedance 381.330+368.432j;
}

object transformer_configuration {
	name transformer_configuration_2908;
	connect_type WYE_WYE;
	install_type POLETOP;
	primary_voltage 34500.000 V;
	secondary_voltage 480 V;
	power_rating 75.0;
	powerC_rating 75.0;
	resistance 0.00133;
	reactance 0.00667;
	shunt_impedance 443.910+467.360j;
}

object transformer_configuration {
	name transformer_configuration_2909;
	connect_type WYE_WYE;
	install_type POLETOP;
	primary_voltage 34500.000 V;
	secondary_voltage 480 V;
	power_rating 50.0;
	powerA_rating 25.0;
	powerB_rating 15.0;
	powerC_rating 10.0;
	resistance 0.00200;
	reactance 0.01000;
	shunt_impedance 391.760+433.165j;
}

object transformer_configuration {
	name transformer_configuration_2910;
	connect_type WYE_WYE;
	install_type POLETOP;
	primary_voltage 34500.000 V;
	secondary_voltage 480 V;
	power_rating 55.0;
	powerA_rating 15.0;
	powerB_rating 25.0;
	powerC_rating 15.0;
	resistance 0.00182;
	reactance 0.00909;
	shunt_impedance 402.190+402.783j;
}

object transformer_configuration {
	name transformer_configuration_2911;
	connect_type WYE_WYE;
	install_type POLETOP;
	primary_voltage 34500.000 V;
	secondary_voltage 480 V;
	power_rating 150.0;
	powerA_rating 50.0;
	powerB_rating 50.0;
	powerC_rating 50.0;
	resistance 0.00067;
	reactance 0.00333;
	shunt_impedance 600.360+697.304j;
}

object transformer_configuration {
	name transformer_configuration_2912;
	connect_type WYE_WYE;
	install_type POLETOP;
	primary_voltage 34500.000 V;
	secondary_voltage 480 V;
	power_rating 60.0;
	powerA_rating 15.0;
	powerB_rating 15.0;
	powerC_rating 30.0;
	resistance 0.00167;
	reactance 0.00833;
	shunt_impedance 412.620+378.956j;
}

object transformer_configuration {
	name transformer_configuration_2913;
	connect_type WYE_WYE;
	install_type POLETOP;
	primary_voltage 34500.000 V;
	secondary_voltage 480 V;
	power_rating 250.0;
	powerA_rating 100.0;
	powerB_rating 75.0;
	powerC_rating 75.0;
	resistance 0.00040;
	reactance 0.00200;
	shunt_impedance 808.960+647.349j;
}

object transformer_configuration {
	name transformer_configuration_2914;
	connect_type WYE_WYE;
	install_type POLETOP;
	primary_voltage 34500.000 V;
	secondary_voltage 480 V;
	power_rating 225.0;
	powerA_rating 75.0;
	powerB_rating 75.0;
	powerC_rating 75.0;
	resistance 0.00044;
	reactance 0.00222;
	shunt_impedance 756.810+700.186j;
}

object transformer_configuration {
	name transformer_configuration_2915;
	connect_type WYE_WYE;
	install_type POLETOP;
	primary_voltage 34500.000 V;
	secondary_voltage 480 V;
	power_rating 275.0;
	powerA_rating 100.0;
	powerB_rating 75.0;
	powerC_rating 100.0;
	resistance 0.00036;
	reactance 0.00182;
	shunt_impedance 861.110+843.948j;
}

object transformer_configuration {
	name transformer_configuration_2916;
	connect_type WYE_WYE;
	install_type POLETOP;
	primary_voltage 34500.000 V;
	secondary_voltage 480 V;
	power_rating 50.0;
	powerA_rating 25.0;
	powerC_rating 25.0;
	resistance 0.00200;
	reactance 0.01000;
	shunt_impedance 391.760+377.157j;
}

object transformer_configuration {
	name transformer_configuration_2917;
	connect_type WYE_WYE;
	install_type POLETOP;
	primary_voltage 34500.000 V;
	secondary_voltage 480 V;
	power_rating 55.0;
	powerA_rating 15.0;
	powerB_rating 15.0;
	powerC_rating 25.0;
	resistance 0.00182;
	reactance 0.00909;
	shunt_impedance 402.190+368.110j;
}

object transformer_configuration {
	name transformer_configuration_2918;
	connect_type WYE_WYE;
	install_type POLETOP;
	primary_voltage 34500.000 V;
	secondary_voltage 480 V;
	power_rating 40.0;
	powerA_rating 15.0;
	powerC_rating 25.0;
	resistance 0.00250;
	reactance 0.01250;
	shunt_impedance 370.900+420.498j;
}

object transformer_configuration {
	name transformer_configuration_2919;
	connect_type WYE_WYE;
	install_type POLETOP;
	primary_voltage 34500.000 V;
	secondary_voltage 480 V;
	power_rating 30.0;
	powerA_rating 15.0;
	powerC_rating 15.0;
	resistance 0.00333;
	reactance 0.01667;
	shunt_impedance 350.040+293.462j;
}

object transformer_configuration {
	name transformer_configuration_2920;
	connect_type WYE_WYE;
	install_type POLETOP;
	primary_voltage 34500.000 V;
	secondary_voltage 480 V;
	power_rating 5.0;
	powerA_rating 5.0;
	resistance 0.01;
	reactance 0.05;
	shunt_impedance 297.890+283.239j;
}

object transformer_configuration {
	name transformer_configuration_2921;
	connect_type WYE_WYE;
	install_type POLETOP;
	primary_voltage 34500.000 V;
	secondary_voltage 480 V;
	power_rating 137.5;
	powerA_rating 37.5;
	powerB_rating 62.5;
	powerC_rating 37.5;
	resistance 0.00073;
	reactance 0.00364;
	shunt_impedance 574.285+518.619j;
}

object transformer_configuration {
	name transformer_configuration_2922;
	connect_type WYE_WYE;
	install_type POLETOP;
	primary_voltage 34500.000 V;
	secondary_voltage 480 V;
	power_rating 100.0;
	powerA_rating 50.0;
	powerB_rating 25.0;
	powerC_rating 25.0;
	resistance 0.00100;
	reactance 0.00500;
	shunt_impedance 496.060+472.541j;
}

object transformer_configuration {
	name transformer_configuration_2923;
	connect_type WYE_WYE;
	install_type POLETOP;
	primary_voltage 34500.000 V;
	secondary_voltage 480 V;
	power_rating 20.0;
	powerA_rating 10.0;
	powerC_rating 10.0;
	resistance 0.00500;
	reactance 0.02500;
	shunt_impedance 329.180+307.251j;
}

object transformer_configuration {
	name transformer_configuration_2924;
	connect_type WYE_WYE;
	install_type POLETOP;
	primary_voltage 34500.000 V;
	secondary_voltage 480 V;
	power_rating 10.0;
	powerA_rating 10.0;
	resistance 0.01;
	reactance 0.05;
	shunt_impedance 308.320+323.069j;
}

object transformer_configuration {
	name transformer_configuration_2925;
	connect_type WYE_WYE;
	install_type POLETOP;
	primary_voltage 34500.000 V;
	secondary_voltage 480 V;
	power_rating 40.0;
	powerA_rating 25.0;
	powerB_rating 15.0;
	resistance 0.00250;
	reactance 0.01250;
	shunt_impedance 370.900+332.287j;
}

object transformer_configuration {
	name transformer_configuration_2926;
	connect_type WYE_WYE;
	install_type PADMOUNT;
	primary_voltage 34500.000 V;
	secondary_voltage 480 V;
	power_rating 50.0;
	powerA_rating 25.0;
	powerB_rating 25.0;
	resistance 0.00200;
	reactance 0.01000;
	shunt_impedance 391.760+359.610j;
}

object transformer_configuration {
	name transformer_configuration_2927;
	connect_type WYE_WYE;
	install_type POLETOP;
	primary_voltage 34500.000 V;
	secondary_voltage 480 V;
	power_rating 55.0;
	powerA_rating 30.0;
	powerB_rating 25.0;
	resistance 0.00182;
	reactance 0.00909;
	shunt_impedance 402.190+406.257j;
}

object transformer_configuration {
	name transformer_configuration_2928;
	connect_type WYE_WYE;
	install_type POLETOP;
	primary_voltage 34500.000 V;
	secondary_voltage 480 V;
	power_rating 50.0;
	powerA_rating 25.0;
	powerB_rating 25.0;
	resistance 0.00200;
	reactance 0.01000;
	shunt_impedance 391.760+434.226j;
}

object transformer_configuration {
	name transformer_configuration_2929;
	connect_type WYE_WYE;
	install_type POLETOP;
	primary_voltage 34500.000 V;
	secondary_voltage 480 V;
	power_rating 40.0;
	powerA_rating 15.0;
	powerB_rating 25.0;
	resistance 0.00250;
	reactance 0.01250;
	shunt_impedance 370.900+302.116j;
}

object transformer_configuration {
	name transformer_configuration_2930;
	connect_type WYE_WYE;
	install_type POLETOP;
	primary_voltage 34500.000 V;
	secondary_voltage 480 V;
	power_rating 62.5;
	powerA_rating 62.5;
	resistance 0.00160;
	reactance 0.00800;
	shunt_impedance 417.835+493.035j;
}

object transformer_configuration {
	name transformer_configuration_2931;
	connect_type WYE_WYE;
	install_type POLETOP;
	primary_voltage 34500.000 V;
	secondary_voltage 480 V;
	power_rating 50.0;
	powerA_rating 50.0;
	resistance 0.00200;
	reactance 0.01000;
	shunt_impedance 391.760+357.349j;
}

object transformer_configuration {
	name transformer_configuration_2932;
	connect_type WYE_WYE;
	install_type POLETOP;
	primary_voltage 34500.000 V;
	secondary_voltage 480 V;
	power_rating 90.0;
	powerA_rating 50.0;
	powerB_rating 25.0;
	powerC_rating 15.0;
	resistance 0.00111;
	reactance 0.00556;
	shunt_impedance 475.200+505.980j;
}

object transformer_configuration {
	name transformer_configuration_2933;
	connect_type WYE_WYE;
	install_type POLETOP;
	primary_voltage 34500.000 V;
	secondary_voltage 480 V;
	power_rating 80.0;
	powerA_rating 15.0;
	powerB_rating 50.0;
	powerC_rating 15.0;
	resistance 0.00125;
	reactance 0.00625;
	shunt_impedance 454.340+502.026j;
}

object transformer_configuration {
	name transformer_configuration_2934;
	connect_type WYE_WYE;
	install_type POLETOP;
	primary_voltage 34500.000 V;
	secondary_voltage 480 V;
	power_rating 100.0;
	powerA_rating 25.0;
	powerB_rating 25.0;
	powerC_rating 50.0;
	resistance 0.00100;
	reactance 0.00500;
	shunt_impedance 496.060+561.693j;
}

object transformer_configuration {
	name transformer_configuration_2935;
	connect_type WYE_WYE;
	install_type POLETOP;
	primary_voltage 34500.000 V;
	secondary_voltage 480 V;
	power_rating 60.0;
	powerA_rating 25.0;
	powerB_rating 25.0;
	powerC_rating 10.0;
	resistance 0.00167;
	reactance 0.00833;
	shunt_impedance 412.620+391.273j;
}

object transformer_configuration {
	name transformer_configuration_2936;
	connect_type WYE_WYE;
	install_type POLETOP;
	primary_voltage 34500.000 V;
	secondary_voltage 480 V;
	power_rating 225.0;
	powerA_rating 50.0;
	powerB_rating 75.0;
	powerC_rating 100.0;
	resistance 0.00044;
	reactance 0.00222;
	shunt_impedance 756.810+758.650j;
}

object transformer_configuration {
	name transformer_configuration_2937;
	connect_type WYE_WYE;
	install_type POLETOP;
	primary_voltage 34500.000 V;
	secondary_voltage 480 V;
	power_rating 95.0;
	powerA_rating 30.0;
	powerB_rating 50.0;
	powerC_rating 15.0;
	resistance 0.00105;
	reactance 0.00526;
	shunt_impedance 485.630+477.745j;
}

object transformer_configuration {
	name transformer_configuration_2938;
	connect_type WYE_WYE;
	install_type PADMOUNT;
	primary_voltage 34500.000 V;
	secondary_voltage 480 V;
	power_rating 10.0;
	powerC_rating 10.0;
	resistance 0.01;
	reactance 0.05;
	shunt_impedance 308.320+289.646j;
}

object transformer_configuration {
	name transformer_configuration_2939;
	connect_type WYE_WYE;
	install_type POLETOP;
	primary_voltage 34500.000 V;
	secondary_voltage 480 V;
	power_rating 95.0;
	powerA_rating 30.0;
	powerB_rating 15.0;
	powerC_rating 50.0;
	resistance 0.00105;
	reactance 0.00526;
	shunt_impedance 485.630+498.825j;
}

object transformer_configuration {
	name transformer_configuration_2940;
	connect_type WYE_WYE;
	install_type POLETOP;
	primary_voltage 34500.000 V;
	secondary_voltage 480 V;
	power_rating 10.0;
	powerB_rating 10.0;
	resistance 0.01;
	reactance 0.05;
	shunt_impedance 308.320+319.378j;
}

object transformer_configuration {
	name transformer_configuration_2941;
	connect_type WYE_WYE;
	install_type POLETOP;
	primary_voltage 34500.000 V;
	secondary_voltage 480 V;
	power_rating 95.0;
	powerA_rating 50.0;
	powerB_rating 15.0;
	powerC_rating 30.0;
	resistance 0.00105;
	reactance 0.00526;
	shunt_impedance 485.630+468.521j;
}

object transformer_configuration {
	name transformer_configuration_2942;
	connect_type WYE_WYE;
	install_type POLETOP;
	primary_voltage 34500.000 V;
	secondary_voltage 480 V;
	power_rating 37.5;
	powerA_rating 37.5;
	resistance 0.00267;
	reactance 0.01333;
	shunt_impedance 365.685+370.525j;
}

object transformer_configuration {
	name transformer_configuration_2943;
	connect_type WYE_WYE;
	install_type POLETOP;
	primary_voltage 34500.000 V;
	secondary_voltage 480 V;
	power_rating 90.0;
	powerA_rating 50.0;
	powerB_rating 15.0;
	powerC_rating 25.0;
	resistance 0.00111;
	reactance 0.00556;
	shunt_impedance 475.200+602.249j;
}

object transformer_configuration {
	name transformer_configuration_2944;
	connect_type WYE_WYE;
	install_type POLETOP;
	primary_voltage 34500.000 V;
	secondary_voltage 480 V;
	power_rating 125.0;
	powerA_rating 50.0;
	powerB_rating 50.0;
	powerC_rating 25.0;
	resistance 0.00080;
	reactance 0.00400;
	shunt_impedance 548.210+547.795j;
}

object transformer_configuration {
	name transformer_configuration_2945;
	connect_type WYE_WYE;
	install_type POLETOP;
	primary_voltage 34500.000 V;
	secondary_voltage 480 V;
	power_rating 75.0;
	powerB_rating 75.0;
	resistance 0.00133;
	reactance 0.00667;
	shunt_impedance 443.910+475.441j;
}

object transformer_configuration {
	name transformer_configuration_2946;
	connect_type WYE_WYE;
	install_type POLETOP;
	primary_voltage 34500.000 V;
	secondary_voltage 480 V;
	power_rating 40.0;
	powerA_rating 15.0;
	powerB_rating 15.0;
	powerC_rating 10.0;
	resistance 0.00250;
	reactance 0.01250;
	shunt_impedance 370.900+353.744j;
}

object transformer_configuration {
	name transformer_configuration_2947;
	connect_type WYE_WYE;
	install_type POLETOP;
	primary_voltage 34500.000 V;
	secondary_voltage 480 V;
	power_rating 37.5;
	powerB_rating 37.5;
	resistance 0.00267;
	reactance 0.01333;
	shunt_impedance 365.685+346.381j;
}

object transformer_configuration {
	name transformer_configuration_2948;
	connect_type WYE_WYE;
	install_type POLETOP;
	primary_voltage 34500.000 V;
	secondary_voltage 480 V;
	power_rating 50.0;
	powerC_rating 50.0;
	resistance 0.00200;
	reactance 0.01000;
	shunt_impedance 391.760+378.213j;
}

object transformer_configuration {
	name transformer_configuration_2949;
	connect_type WYE_WYE;
	install_type PADMOUNT;
	primary_voltage 34500.000 V;
	secondary_voltage 480 V;
	power_rating 87.5;
	powerA_rating 37.5;
	powerB_rating 25.0;
	powerC_rating 25.0;
	resistance 0.00114;
	reactance 0.00571;
	shunt_impedance 469.985+496.518j;
}

object transformer_configuration {
	name transformer_configuration_2950;
	connect_type WYE_WYE;
	install_type POLETOP;
	primary_voltage 34500.000 V;
	secondary_voltage 480 V;
	power_rating 187.5;
	powerA_rating 62.5;
	powerB_rating 62.5;
	powerC_rating 62.5;
	resistance 0.00053;
	reactance 0.00267;
	shunt_impedance 678.585+624.194j;
}

object transformer_configuration {
	name transformer_configuration_2951;
	connect_type WYE_WYE;
	install_type POLETOP;
	primary_voltage 34500.000 V;
	secondary_voltage 480 V;
	power_rating 90.0;
	powerA_rating 15.0;
	powerB_rating 50.0;
	powerC_rating 25.0;
	resistance 0.00111;
	reactance 0.00556;
	shunt_impedance 475.200+387.148j;
}

object transformer_configuration {
	name transformer_configuration_2952;
	connect_type WYE_WYE;
	install_type POLETOP;
	primary_voltage 34500.000 V;
	secondary_voltage 480 V;
	power_rating 37.5;
	powerC_rating 37.5;
	resistance 0.00267;
	reactance 0.01333;
	shunt_impedance 365.685+367.631j;
}

object transformer_configuration {
	name transformer_configuration_2953;
	connect_type WYE_WYE;
	install_type POLETOP;
	primary_voltage 34500.000 V;
	secondary_voltage 480 V;
	power_rating 125.0;
	powerA_rating 25.0;
	powerB_rating 50.0;
	powerC_rating 50.0;
	resistance 0.00080;
	reactance 0.00400;
	shunt_impedance 548.210+524.285j;
}

object transformer_configuration {
	name transformer_configuration_2954;
	connect_type WYE_WYE;
	install_type POLETOP;
	primary_voltage 34500.000 V;
	secondary_voltage 480 V;
	power_rating 125.0;
	powerA_rating 25.0;
	powerB_rating 37.5;
	powerC_rating 62.5;
	resistance 0.00080;
	reactance 0.00400;
	shunt_impedance 548.210+563.560j;
}

object transformer_configuration {
	name transformer_configuration_2955;
	connect_type WYE_WYE;
	install_type PADMOUNT;
	primary_voltage 34500.000 V;
	secondary_voltage 480 V;
	power_rating 25.0;
	powerA_rating 25.0;
	resistance 0.00400;
	reactance 0.02000;
	shunt_impedance 339.610+342.483j;
}

object transformer_configuration {
	name transformer_configuration_2956;
	connect_type WYE_WYE;
	install_type POLETOP;
	primary_voltage 34500.000 V;
	secondary_voltage 480 V;
	power_rating 450.0;
	powerA_rating 150.0;
	powerB_rating 150.0;
	powerC_rating 150.0;
	resistance 0.00022;
	reactance 0.00111;
	shunt_impedance 1226.160+1315.562j;
}

object transformer_configuration {
	name transformer_configuration_2957;
	connect_type WYE_WYE;
	install_type POLETOP;
	primary_voltage 34500.000 V;
	secondary_voltage 480 V;
	power_rating 300.0;
	powerA_rating 100.0;
	powerB_rating 100.0;
	powerC_rating 100.0;
	resistance 0.00033;
	reactance 0.00167;
	shunt_impedance 913.260+995.522j;
}

object transformer_configuration {
	name transformer_configuration_2958;
	connect_type WYE_WYE;
	install_type POLETOP;
	primary_voltage 34500.000 V;
	secondary_voltage 480 V;
	power_rating 25.0;
	powerB_rating 25.0;
	resistance 0.00400;
	reactance 0.02000;
	shunt_impedance 339.610+294.590j;
}

object transformer_configuration {
	name transformer_configuration_2959;
	connect_type WYE_WYE;
	install_type PADMOUNT;
	primary_voltage 34500.000 V;
	secondary_voltage 480 V;
	power_rating 75.0;
	powerC_rating 75.0;
	resistance 0.00133;
	reactance 0.00667;
	shunt_impedance 443.910+376.232j;
}

object transformer_configuration {
	name transformer_configuration_2960;
	connect_type WYE_WYE;
	install_type PADMOUNT;
	primary_voltage 34500.000 V;
	secondary_voltage 480 V;
	power_rating 10.0;
	powerA_rating 10.0;
	resistance 0.01;
	reactance 0.05;
	shunt_impedance 308.320+323.811j;
}

object transformer_configuration {
	name transformer_configuration_2961;
	connect_type WYE_WYE;
	install_type PADMOUNT;
	primary_voltage 34500.000 V;
	secondary_voltage 480 V;
	power_rating 5.0;
	powerA_rating 5.0;
	resistance 0.01;
	reactance 0.05;
	shunt_impedance 297.890+307.017j;
}

object transformer_configuration {
	name transformer_configuration_2962;
	connect_type WYE_WYE;
	install_type PADMOUNT;
	primary_voltage 34500.000 V;
	secondary_voltage 480 V;
	power_rating 60.0;
	powerA_rating 15.0;
	powerB_rating 15.0;
	powerC_rating 30.0;
	resistance 0.00167;
	reactance 0.00833;
	shunt_impedance 412.620+373.868j;
}

object transformer_configuration {
	name transformer_configuration_2963;
	connect_type WYE_WYE;
	install_type POLETOP;
	primary_voltage 34500.000 V;
	secondary_voltage 480 V;
	power_rating 92.5;
	powerA_rating 15.0;
	powerB_rating 15.0;
	powerC_rating 62.5;
	resistance 0.00108;
	reactance 0.00541;
	shunt_impedance 480.415+539.862j;
}

object transformer_configuration {
	name transformer_configuration_2964;
	connect_type WYE_WYE;
	install_type PADMOUNT;
	primary_voltage 34500.000 V;
	secondary_voltage 480 V;
	power_rating 90.0;
	powerA_rating 25.0;
	powerB_rating 50.0;
	powerC_rating 15.0;
	resistance 0.00111;
	reactance 0.00556;
	shunt_impedance 475.200+476.769j;
}

object transformer_configuration {
	name transformer_configuration_2965;
	connect_type WYE_WYE;
	install_type POLETOP;
	primary_voltage 34500.000 V;
	secondary_voltage 480 V;
	power_rating 90.0;
	powerA_rating 25.0;
	powerB_rating 50.0;
	powerC_rating 15.0;
	resistance 0.00111;
	reactance 0.00556;
	shunt_impedance 475.200+481.072j;
}

object transformer_configuration {
	name transformer_configuration_2966;
	connect_type WYE_WYE;
	install_type POLETOP;
	primary_voltage 34500.000 V;
	secondary_voltage 480 V;
	power_rating 30.0;
	powerA_rating 10.0;
	powerB_rating 10.0;
	powerC_rating 10.0;
	resistance 0.00333;
	reactance 0.01667;
	shunt_impedance 350.040+359.629j;
}

object transformer_configuration {
	name transformer_configuration_2967;
	connect_type WYE_WYE;
	install_type POLETOP;
	primary_voltage 34500.000 V;
	secondary_voltage 480 V;
	power_rating 40.0;
	powerB_rating 25.0;
	powerC_rating 15.0;
	resistance 0.00250;
	reactance 0.01250;
	shunt_impedance 370.900+398.872j;
}

object transformer_configuration {
	name transformer_configuration_2968;
	connect_type WYE_WYE;
	install_type POLETOP;
	primary_voltage 34500.000 V;
	secondary_voltage 480 V;
	power_rating 55.0;
	powerB_rating 25.0;
	powerC_rating 30.0;
	resistance 0.00182;
	reactance 0.00909;
	shunt_impedance 402.190+463.504j;
}

object transformer_configuration {
	name transformer_configuration_2969;
	connect_type WYE_WYE;
	install_type POLETOP;
	primary_voltage 34500.000 V;
	secondary_voltage 480 V;
	power_rating 40.0;
	powerB_rating 15.0;
	powerC_rating 25.0;
	resistance 0.00250;
	reactance 0.01250;
	shunt_impedance 370.900+361.183j;
}

object transformer_configuration {
	name transformer_configuration_2970;
	connect_type WYE_WYE;
	install_type POLETOP;
	primary_voltage 34500.000 V;
	secondary_voltage 480 V;
	power_rating 35.0;
	powerA_rating 25.0;
	powerC_rating 10.0;
	resistance 0.00286;
	reactance 0.01429;
	shunt_impedance 360.470+298.084j;
}

object transformer_configuration {
	name transformer_configuration_2971;
	connect_type WYE_WYE;
	install_type POLETOP;
	primary_voltage 34500.000 V;
	secondary_voltage 480 V;
	power_rating 325.0;
	powerA_rating 112.5;
	powerB_rating 112.5;
	powerC_rating 100.0;
	resistance 0.00031;
	reactance 0.00154;
	shunt_impedance 965.410+1063.251j;
}

object transformer_configuration {
	name transformer_configuration_2972;
	connect_type WYE_WYE;
	install_type POLETOP;
	primary_voltage 34500.000 V;
	secondary_voltage 480 V;
	power_rating 60.0;
...